LTspice 26.0.1 for Windows
Circuit: Z:\home\drizzi\uni\LabCircuiti\Simulaizoni_LTSpice\PassaBanda440Hz.net
Start Time: Tue Apr 21 09:07:54 2026
solver = Normal
Maximum thread count: 16
tnom = 27
temp = 27
method = trap
.OP point found by inspection.
.OP point found by inspection.
Total elapsed time: 0.053 seconds.

Files loaded:
Z:\home\drizzi\uni\LabCircuiti\Simulaizoni_LTSpice\PassaBanda440Hz.net

