LTspice 26.0.1 for Windows
Circuit: Z:\home\drizzi\uni\LabCircuiti\Simulazioni_LTSpice\CrossOver.net
Start Time: Tue Apr 21 13:45:09 2026
solver = Normal
Maximum thread count: 16
tnom = 27
temp = 27
method = trap
.OP point found by inspection.
.OP point found by inspection.
Total elapsed time: 0.060 seconds.

Files loaded:
Z:\home\drizzi\uni\LabCircuiti\Simulazioni_LTSpice\CrossOver.net

