LTspice 26.0.1 for Windows
Circuit: Z:\home\drizzi\uni\LabCircuiti\Simulazioni_LTSpice\notchfilter.net
Start Time: Tue Apr 21 14:05:48 2026
solver = Normal
Maximum thread count: 16
tnom = 27
temp = 27
method = trap
.OP point found by inspection.
.OP point found by inspection.
Total elapsed time: 0.093 seconds.

Files loaded:
Z:\home\drizzi\uni\LabCircuiti\Simulazioni_LTSpice\notchfilter.net

